LTspice 24.0.12 for Windows
Circuit: * C:\Users\jgood\Documents\GitHub\MIL\ReptileRover\BatteryMonitor\LTSpiceStuff\RoverBatThing.asc
Start Time: Thu Feb  6 19:43:55 2025
solver = Normal
Maximum thread count: 8
tnom = 27
temp = 27
method = modified trap
Early termination of direct N-R iteration.
Direct Newton iteration failed to find .op point.  (Use ".option noopiter" to skip.)
Starting Gmin stepping
Gmin = 10
vernier = 0.5
vernier = 0.25
vernier = 0.125
Gmin = 4.096
vernier = 0.0625
vernier = 0.03125
vernier = 0.015625
vernier = 0.0078125
Gmin = 4.07211
vernier = 0.00390625
vernier = 0.00195312
vernier = 0.000976562
vernier = 0.000488281
Gmin = 4.06714
Gmin = 0
Gmin stepping succeeded in finding the operating point.

Total elapsed time: 0.982 seconds.

